
Note: Compatibility modes selected: hs a

Warning: m=xx on .subckt line will override multiplier m hierarchy!


Circuit: ** sch_path: /foss/designs/pico/akshat_comp/ezyzip/pico/comparator/comparator.sch

option SCALE: Scale is set to 1e-06 for instance and model parameters
binary raw file "/foss/designs/pico/akshat_comp/ezyzip/PICO/black_inv/simulation/Comparator.raw"
Doing analysis at TEMP = 27.000000 and TNOM = 27.000000

Warning: v3: no DC value, transient time 0 value used
No. of Data Columns : 132  

Initial Transient Solution
--------------------------

Node                                   Voltage
----                                   -------
net1                                   0.39564
clkb1b                                     0.6
vdd                                        0.6
clkb11                             3.56238e-07
clk                                          0
x1.net1                                    0.6
inv                                        0.6
test1                              5.65824e-07
test2                                      0.6
clkb2                              5.65824e-07
net2                                  0.154721
net3                                  0.153577
net4                               4.30467e-07
vin+                                       0.3
vin-                                     0.301
out-                                  0.599988
out+                               5.84918e-07
net5                                  0.599999
net6                                  0.599998
net7                                  0.295117
d1                                         0.6
d2                                 4.15253e-07
v1#branch                         -1.04857e-11
v5#branch                                    0
v4#branch                                    0
v3#branch                                    0


No. of Data Rows : 10090

Total analysis time (seconds) = 5.564

Total elapsed time (seconds) = 29.396 

Total DRAM available = 7829.664 MB.
DRAM currently available =  158.188 MB.
Maximum ngspice program size =  849.598 MB.
Current ngspice program size =  663.535 MB.

Shared ngspice pages =    8.727 MB.
Text (code) pages =    4.934 MB.
Stack = 0 bytes.
Library pages =  775.504 MB.

