
Note: Compatibility modes selected: hs a

Warning: m=xx on .subckt line will override multiplier m hierarchy!


Circuit: ** sch_path: /foss/designs/untitled-3.sch

warning, can't find model 'sky130_fd_pr__pfet_01v8__model' from line
    m.x1.x7.xm1.msky130_fd_pr__pfet_01v8 x1.net3 x1.net4 vs vs sky130_fd_pr__pfet_01v8__model l=    1.500000000000000e-01     w=    1.260000000000000e+00     nf=    1.000000000000000e+00     ad=    3.654000000000000e-01     as=    3.654000000000000e-01     pd=    3.100000000000000e+00     ps=    3.100000000000000e+00     nrd=    2.301587301587301e-01     nrs=    2.301587301587301e-01     sa=    0.000000000000000e+00     sb=    0.000000000000000e+00     sd=    0.000000000000000e+00     m=    1.000000000000000e+00   
warning, can't find model 'sky130_fd_pr__pfet_01v8__model' from line
    m.x1.x7.xm2.msky130_fd_pr__pfet_01v8 x1.net3 x1.net2 vs vs sky130_fd_pr__pfet_01v8__model l=    1.500000000000000e-01     w=    1.260000000000000e+00     nf=    1.000000000000000e+00     ad=    3.654000000000000e-01     as=    3.654000000000000e-01     pd=    3.100000000000000e+00     ps=    3.100000000000000e+00     nrd=    2.301587301587301e-01     nrs=    2.301587301587301e-01     sa=    0.000000000000000e+00     sb=    0.000000000000000e+00     sd=    0.000000000000000e+00     m=    1.000000000000000e+00   
warning, can't find model 'sky130_fd_pr__nfet_01v8__model' from line
    m.x1.x7.xm3.msky130_fd_pr__nfet_01v8 x1.net3 x1.net4 x1.x7.net1 x1.x7.net1 sky130_fd_pr__nfet_01v8__model l=    1.500000000000000e-01     w=    8.400000000000000e-01     nf=    1.000000000000000e+00     ad=    2.436000000000000e-01     as=    2.436000000000000e-01     pd=    2.260000000000000e+00     ps=    2.260000000000000e+00     nrd=    3.452380952380952e-01     nrs=    3.452380952380952e-01     sa=    0.000000000000000e+00     sb=    0.000000000000000e+00     sd=    0.000000000000000e+00     m=    1.000000000000000e+00   
warning, can't find model 'sky130_fd_pr__nfet_01v8__model' from line
    m.x1.x7.xm4.msky130_fd_pr__nfet_01v8 x1.x7.net1 x1.net2 0 0 sky130_fd_pr__nfet_01v8__model l=    1.500000000000000e-01     w=    8.400000000000000e-01     nf=    1.000000000000000e+00     ad=    2.436000000000000e-01     as=    2.436000000000000e-01     pd=    2.260000000000000e+00     ps=    2.260000000000000e+00     nrd=    3.452380952380952e-01     nrs=    3.452380952380952e-01     sa=    0.000000000000000e+00     sb=    0.000000000000000e+00     sd=    0.000000000000000e+00     m=    1.000000000000000e+00   
warning, can't find model 'sky130_fd_pr__nfet_01v8__model' from line
    m.x1.x8.xm1.msky130_fd_pr__nfet_01v8 x1.net2 x1.net3 x1.x8.net1 0 sky130_fd_pr__nfet_01v8__model l=    1.500000000000000e-01     w=    1.260000000000000e+00     nf=    1.000000000000000e+00     ad=    3.654000000000000e-01     as=    3.654000000000000e-01     pd=    3.100000000000000e+00     ps=    3.100000000000000e+00     nrd=    2.301587301587301e-01     nrs=    2.301587301587301e-01     sa=    0.000000000000000e+00     sb=    0.000000000000000e+00     sd=    0.000000000000000e+00     m=    1.000000000000000e+00   
warning, can't find model 'sky130_fd_pr__nfet_01v8__model' from line
    m.x1.x8.xm2.msky130_fd_pr__nfet_01v8 x1.x8.net1 clk x1.x8.net2 0 sky130_fd_pr__nfet_01v8__model l=    1.500000000000000e-01     w=    1.260000000000000e+00     nf=    1.000000000000000e+00     ad=    3.654000000000000e-01     as=    3.654000000000000e-01     pd=    3.100000000000000e+00     ps=    3.100000000000000e+00     nrd=    2.301587301587301e-01     nrs=    2.301587301587301e-01     sa=    0.000000000000000e+00     sb=    0.000000000000000e+00     sd=    0.000000000000000e+00     m=    1.000000000000000e+00   
warning, can't find model 'sky130_fd_pr__nfet_01v8__model' from line
    m.x1.x8.xm3.msky130_fd_pr__nfet_01v8 x1.x8.net2 rst 0 0 sky130_fd_pr__nfet_01v8__model l=    1.500000000000000e-01     w=    1.260000000000000e+00     nf=    1.000000000000000e+00     ad=    3.654000000000000e-01     as=    3.654000000000000e-01     pd=    3.100000000000000e+00     ps=    3.100000000000000e+00     nrd=    2.301587301587301e-01     nrs=    2.301587301587301e-01     sa=    0.000000000000000e+00     sb=    0.000000000000000e+00     sd=    0.000000000000000e+00     m=    1.000000000000000e+00   
warning, can't find model 'sky130_fd_pr__pfet_01v8__model' from line
    m.x1.x8.xm4.msky130_fd_pr__pfet_01v8 x1.net2 x1.net3 vs vs sky130_fd_pr__pfet_01v8__model l=    1.500000000000000e-01     w=    1.260000000000000e+00     nf=    1.000000000000000e+00     ad=    3.654000000000000e-01     as=    3.654000000000000e-01     pd=    3.100000000000000e+00     ps=    3.100000000000000e+00     nrd=    2.301587301587301e-01     nrs=    2.301587301587301e-01     sa=    0.000000000000000e+00     sb=    0.000000000000000e+00     sd=    0.000000000000000e+00     m=    1.000000000000000e+00   
warning, can't find model 'sky130_fd_pr__pfet_01v8__model' from line
    m.x1.x8.xm5.msky130_fd_pr__pfet_01v8 x1.net2 clk vs vs sky130_fd_pr__pfet_01v8__model l=    1.500000000000000e-01     w=    1.260000000000000e+00     nf=    1.000000000000000e+00     ad=    3.654000000000000e-01     as=    3.654000000000000e-01     pd=    3.100000000000000e+00     ps=    3.100000000000000e+00     nrd=    2.301587301587301e-01     nrs=    2.301587301587301e-01     sa=    0.000000000000000e+00     sb=    0.000000000000000e+00     sd=    0.000000000000000e+00     m=    1.000000000000000e+00   
warning, can't find model 'sky130_fd_pr__pfet_01v8__model' from line
    m.x1.x8.xm6.msky130_fd_pr__pfet_01v8 x1.net2 rst vs vs sky130_fd_pr__pfet_01v8__model l=    1.500000000000000e-01     w=    1.260000000000000e+00     nf=    1.000000000000000e+00     ad=    3.654000000000000e-01     as=    3.654000000000000e-01     pd=    3.100000000000000e+00     ps=    3.100000000000000e+00     nrd=    2.301587301587301e-01     nrs=    2.301587301587301e-01     sa=    0.000000000000000e+00     sb=    0.000000000000000e+00     sd=    0.000000000000000e+00     m=    1.000000000000000e+00   
warning, can't find model 'sky130_fd_pr__nfet_01v8__model' from line
    m.x1.x6.xm1.msky130_fd_pr__nfet_01v8 net1 clk/2 x1.x6.net1 0 sky130_fd_pr__nfet_01v8__model l=    1.500000000000000e-01     w=    1.260000000000000e+00     nf=    1.000000000000000e+00     ad=    3.654000000000000e-01     as=    3.654000000000000e-01     pd=    3.100000000000000e+00     ps=    3.100000000000000e+00     nrd=    2.301587301587301e-01     nrs=    2.301587301587301e-01     sa=    0.000000000000000e+00     sb=    0.000000000000000e+00     sd=    0.000000000000000e+00     m=    1.000000000000000e+00   
warning, can't find model 'sky130_fd_pr__nfet_01v8__model' from line
    m.x1.x6.xm2.msky130_fd_pr__nfet_01v8 x1.x6.net1 x1.net1 x1.x6.net2 0 sky130_fd_pr__nfet_01v8__model l=    1.500000000000000e-01     w=    1.260000000000000e+00     nf=    1.000000000000000e+00     ad=    3.654000000000000e-01     as=    3.654000000000000e-01     pd=    3.100000000000000e+00     ps=    3.100000000000000e+00     nrd=    2.301587301587301e-01     nrs=    2.301587301587301e-01     sa=    0.000000000000000e+00     sb=    0.000000000000000e+00     sd=    0.000000000000000e+00     m=    1.000000000000000e+00   
warning, can't find model 'sky130_fd_pr__nfet_01v8__model' from line
    m.x1.x6.xm3.msky130_fd_pr__nfet_01v8 x1.x6.net2 rst 0 0 sky130_fd_pr__nfet_01v8__model l=    1.500000000000000e-01     w=    1.260000000000000e+00     nf=    1.000000000000000e+00     ad=    3.654000000000000e-01     as=    3.654000000000000e-01     pd=    3.100000000000000e+00     ps=    3.100000000000000e+00     nrd=    2.301587301587301e-01     nrs=    2.301587301587301e-01     sa=    0.000000000000000e+00     sb=    0.000000000000000e+00     sd=    0.000000000000000e+00     m=    1.000000000000000e+00   
warning, can't find model 'sky130_fd_pr__pfet_01v8__model' from line
    m.x1.x6.xm4.msky130_fd_pr__pfet_01v8 net1 clk/2 vs vs sky130_fd_pr__pfet_01v8__model l=    1.500000000000000e-01     w=    1.260000000000000e+00     nf=    1.000000000000000e+00     ad=    3.654000000000000e-01     as=    3.654000000000000e-01     pd=    3.100000000000000e+00     ps=    3.100000000000000e+00     nrd=    2.301587301587301e-01     nrs=    2.301587301587301e-01     sa=    0.000000000000000e+00     sb=    0.000000000000000e+00     sd=    0.000000000000000e+00     m=    1.000000000000000e+00   
warning, can't find model 'sky130_fd_pr__pfet_01v8__model' from line
    m.x1.x6.xm5.msky130_fd_pr__pfet_01v8 net1 x1.net1 vs vs sky130_fd_pr__pfet_01v8__model l=    1.500000000000000e-01     w=    1.260000000000000e+00     nf=    1.000000000000000e+00     ad=    3.654000000000000e-01     as=    3.654000000000000e-01     pd=    3.100000000000000e+00     ps=    3.100000000000000e+00     nrd=    2.301587301587301e-01     nrs=    2.301587301587301e-01     sa=    0.000000000000000e+00     sb=    0.000000000000000e+00     sd=    0.000000000000000e+00     m=    1.000000000000000e+00   
warning, can't find model 'sky130_fd_pr__pfet_01v8__model' from line
    m.x1.x6.xm6.msky130_fd_pr__pfet_01v8 net1 rst vs vs sky130_fd_pr__pfet_01v8__model l=    1.500000000000000e-01     w=    1.260000000000000e+00     nf=    1.000000000000000e+00     ad=    3.654000000000000e-01     as=    3.654000000000000e-01     pd=    3.100000000000000e+00     ps=    3.100000000000000e+00     nrd=    2.301587301587301e-01     nrs=    2.301587301587301e-01     sa=    0.000000000000000e+00     sb=    0.000000000000000e+00     sd=    0.000000000000000e+00     m=    1.000000000000000e+00   
warning, can't find model 'sky130_fd_pr__nfet_01v8__model' from line
    m.x1.x4.xm1.msky130_fd_pr__nfet_01v8 x1.net1 x1.net2 x1.x4.net1 0 sky130_fd_pr__nfet_01v8__model l=    1.500000000000000e-01     w=    1.260000000000000e+00     nf=    1.000000000000000e+00     ad=    3.654000000000000e-01     as=    3.654000000000000e-01     pd=    3.100000000000000e+00     ps=    3.100000000000000e+00     nrd=    2.301587301587301e-01     nrs=    2.301587301587301e-01     sa=    0.000000000000000e+00     sb=    0.000000000000000e+00     sd=    0.000000000000000e+00     m=    1.000000000000000e+00   
warning, can't find model 'sky130_fd_pr__nfet_01v8__model' from line
    m.x1.x4.xm2.msky130_fd_pr__nfet_01v8 x1.x4.net1 clk x1.x4.net2 0 sky130_fd_pr__nfet_01v8__model l=    1.500000000000000e-01     w=    1.260000000000000e+00     nf=    1.000000000000000e+00     ad=    3.654000000000000e-01     as=    3.654000000000000e-01     pd=    3.100000000000000e+00     ps=    3.100000000000000e+00     nrd=    2.301587301587301e-01     nrs=    2.301587301587301e-01     sa=    0.000000000000000e+00     sb=    0.000000000000000e+00     sd=    0.000000000000000e+00     m=    1.000000000000000e+00   
warning, can't find model 'sky130_fd_pr__nfet_01v8__model' from line
    m.x1.x4.xm3.msky130_fd_pr__nfet_01v8 x1.x4.net2 x1.net4 0 0 sky130_fd_pr__nfet_01v8__model l=    1.500000000000000e-01     w=    1.260000000000000e+00     nf=    1.000000000000000e+00     ad=    3.654000000000000e-01     as=    3.654000000000000e-01     pd=    3.100000000000000e+00     ps=    3.100000000000000e+00     nrd=    2.301587301587301e-01     nrs=    2.301587301587301e-01     sa=    0.000000000000000e+00     sb=    0.000000000000000e+00     sd=    0.000000000000000e+00     m=    1.000000000000000e+00   
warning, can't find model 'sky130_fd_pr__pfet_01v8__model' from line
    m.x1.x4.xm4.msky130_fd_pr__pfet_01v8 x1.net1 x1.net2 vs vs sky130_fd_pr__pfet_01v8__model l=    1.500000000000000e-01     w=    1.260000000000000e+00     nf=    1.000000000000000e+00     ad=    3.654000000000000e-01     as=    3.654000000000000e-01     pd=    3.100000000000000e+00     ps=    3.100000000000000e+00     nrd=    2.301587301587301e-01     nrs=    2.301587301587301e-01     sa=    0.000000000000000e+00     sb=    0.000000000000000e+00     sd=    0.000000000000000e+00     m=    1.000000000000000e+00   
warning, can't find model 'sky130_fd_pr__pfet_01v8__model' from line
    m.x1.x4.xm5.msky130_fd_pr__pfet_01v8 x1.net1 clk vs vs sky130_fd_pr__pfet_01v8__model l=    1.500000000000000e-01     w=    1.260000000000000e+00     nf=    1.000000000000000e+00     ad=    3.654000000000000e-01     as=    3.654000000000000e-01     pd=    3.100000000000000e+00     ps=    3.100000000000000e+00     nrd=    2.301587301587301e-01     nrs=    2.301587301587301e-01     sa=    0.000000000000000e+00     sb=    0.000000000000000e+00     sd=    0.000000000000000e+00     m=    1.000000000000000e+00   
warning, can't find model 'sky130_fd_pr__pfet_01v8__model' from line
    m.x1.x4.xm6.msky130_fd_pr__pfet_01v8 x1.net1 x1.net4 vs vs sky130_fd_pr__pfet_01v8__model l=    1.500000000000000e-01     w=    1.260000000000000e+00     nf=    1.000000000000000e+00     ad=    3.654000000000000e-01     as=    3.654000000000000e-01     pd=    3.100000000000000e+00     ps=    3.100000000000000e+00     nrd=    2.301587301587301e-01     nrs=    2.301587301587301e-01     sa=    0.000000000000000e+00     sb=    0.000000000000000e+00     sd=    0.000000000000000e+00     m=    1.000000000000000e+00   
warning, can't find model 'sky130_fd_pr__nfet_01v8__model' from line
    m.x1.x5.xm1.msky130_fd_pr__nfet_01v8 x1.net4 x1.net1 x1.x5.net1 0 sky130_fd_pr__nfet_01v8__model l=    1.500000000000000e-01     w=    1.260000000000000e+00     nf=    1.000000000000000e+00     ad=    3.654000000000000e-01     as=    3.654000000000000e-01     pd=    3.100000000000000e+00     ps=    3.100000000000000e+00     nrd=    2.301587301587301e-01     nrs=    2.301587301587301e-01     sa=    0.000000000000000e+00     sb=    0.000000000000000e+00     sd=    0.000000000000000e+00     m=    1.000000000000000e+00   
warning, can't find model 'sky130_fd_pr__nfet_01v8__model' from line
    m.x1.x5.xm2.msky130_fd_pr__nfet_01v8 x1.x5.net1 net1 x1.x5.net2 0 sky130_fd_pr__nfet_01v8__model l=    1.500000000000000e-01     w=    1.260000000000000e+00     nf=    1.000000000000000e+00     ad=    3.654000000000000e-01     as=    3.654000000000000e-01     pd=    3.100000000000000e+00     ps=    3.100000000000000e+00     nrd=    2.301587301587301e-01     nrs=    2.301587301587301e-01     sa=    0.000000000000000e+00     sb=    0.000000000000000e+00     sd=    0.000000000000000e+00     m=    1.000000000000000e+00   
warning, can't find model 'sky130_fd_pr__nfet_01v8__model' from line
    m.x1.x5.xm3.msky130_fd_pr__nfet_01v8 x1.x5.net2 rst 0 0 sky130_fd_pr__nfet_01v8__model l=    1.500000000000000e-01     w=    1.260000000000000e+00     nf=    1.000000000000000e+00     ad=    3.654000000000000e-01     as=    3.654000000000000e-01     pd=    3.100000000000000e+00     ps=    3.100000000000000e+00     nrd=    2.301587301587301e-01     nrs=    2.301587301587301e-01     sa=    0.000000000000000e+00     sb=    0.000000000000000e+00     sd=    0.000000000000000e+00     m=    1.000000000000000e+00   
warning, can't find model 'sky130_fd_pr__pfet_01v8__model' from line
    m.x1.x5.xm4.msky130_fd_pr__pfet_01v8 x1.net4 x1.net1 vs vs sky130_fd_pr__pfet_01v8__model l=    1.500000000000000e-01     w=    1.260000000000000e+00     nf=    1.000000000000000e+00     ad=    3.654000000000000e-01     as=    3.654000000000000e-01     pd=    3.100000000000000e+00     ps=    3.100000000000000e+00     nrd=    2.301587301587301e-01     nrs=    2.301587301587301e-01     sa=    0.000000000000000e+00     sb=    0.000000000000000e+00     sd=    0.000000000000000e+00     m=    1.000000000000000e+00   
warning, can't find model 'sky130_fd_pr__pfet_01v8__model' from line
    m.x1.x5.xm5.msky130_fd_pr__pfet_01v8 x1.net4 net1 vs vs sky130_fd_pr__pfet_01v8__model l=    1.500000000000000e-01     w=    1.260000000000000e+00     nf=    1.000000000000000e+00     ad=    3.654000000000000e-01     as=    3.654000000000000e-01     pd=    3.100000000000000e+00     ps=    3.100000000000000e+00     nrd=    2.301587301587301e-01     nrs=    2.301587301587301e-01     sa=    0.000000000000000e+00     sb=    0.000000000000000e+00     sd=    0.000000000000000e+00     m=    1.000000000000000e+00   
warning, can't find model 'sky130_fd_pr__pfet_01v8__model' from line
    m.x1.x5.xm6.msky130_fd_pr__pfet_01v8 x1.net4 rst vs vs sky130_fd_pr__pfet_01v8__model l=    1.500000000000000e-01     w=    1.260000000000000e+00     nf=    1.000000000000000e+00     ad=    3.654000000000000e-01     as=    3.654000000000000e-01     pd=    3.100000000000000e+00     ps=    3.100000000000000e+00     nrd=    2.301587301587301e-01     nrs=    2.301587301587301e-01     sa=    0.000000000000000e+00     sb=    0.000000000000000e+00     sd=    0.000000000000000e+00     m=    1.000000000000000e+00   
warning, can't find model 'sky130_fd_pr__pfet_01v8__model' from line
    m.x1.x1.xm1.msky130_fd_pr__pfet_01v8 clk/2 x1.net2 vs vs sky130_fd_pr__pfet_01v8__model l=    1.500000000000000e-01     w=    1.260000000000000e+00     nf=    1.000000000000000e+00     ad=    3.654000000000000e-01     as=    3.654000000000000e-01     pd=    3.100000000000000e+00     ps=    3.100000000000000e+00     nrd=    2.301587301587301e-01     nrs=    2.301587301587301e-01     sa=    0.000000000000000e+00     sb=    0.000000000000000e+00     sd=    0.000000000000000e+00     m=    1.000000000000000e+00   
warning, can't find model 'sky130_fd_pr__pfet_01v8__model' from line
    m.x1.x1.xm2.msky130_fd_pr__pfet_01v8 clk/2 net1 vs vs sky130_fd_pr__pfet_01v8__model l=    1.500000000000000e-01     w=    1.260000000000000e+00     nf=    1.000000000000000e+00     ad=    3.654000000000000e-01     as=    3.654000000000000e-01     pd=    3.100000000000000e+00     ps=    3.100000000000000e+00     nrd=    2.301587301587301e-01     nrs=    2.301587301587301e-01     sa=    0.000000000000000e+00     sb=    0.000000000000000e+00     sd=    0.000000000000000e+00     m=    1.000000000000000e+00   
warning, can't find model 'sky130_fd_pr__nfet_01v8__model' from line
    m.x1.x1.xm3.msky130_fd_pr__nfet_01v8 clk/2 x1.net2 x1.x1.net1 x1.x1.net1 sky130_fd_pr__nfet_01v8__model l=    1.500000000000000e-01     w=    8.400000000000000e-01     nf=    1.000000000000000e+00     ad=    2.436000000000000e-01     as=    2.436000000000000e-01     pd=    2.260000000000000e+00     ps=    2.260000000000000e+00     nrd=    3.452380952380952e-01     nrs=    3.452380952380952e-01     sa=    0.000000000000000e+00     sb=    0.000000000000000e+00     sd=    0.000000000000000e+00     m=    1.000000000000000e+00   
warning, can't find model 'sky130_fd_pr__nfet_01v8__model' from line
    m.x1.x1.xm4.msky130_fd_pr__nfet_01v8 x1.x1.net1 net1 0 0 sky130_fd_pr__nfet_01v8__model l=    1.500000000000000e-01     w=    8.400000000000000e-01     nf=    1.000000000000000e+00     ad=    2.436000000000000e-01     as=    2.436000000000000e-01     pd=    2.260000000000000e+00     ps=    2.260000000000000e+00     nrd=    3.452380952380952e-01     nrs=    3.452380952380952e-01     sa=    0.000000000000000e+00     sb=    0.000000000000000e+00     sd=    0.000000000000000e+00     m=    1.000000000000000e+00   
warning, can't find model 'sky130_fd_pr__pfet_01v8__model' from line
    m.x2.x7.xm1.msky130_fd_pr__pfet_01v8 x2.net3 x2.net4 vs vs sky130_fd_pr__pfet_01v8__model l=    1.500000000000000e-01     w=    1.260000000000000e+00     nf=    1.000000000000000e+00     ad=    3.654000000000000e-01     as=    3.654000000000000e-01     pd=    3.100000000000000e+00     ps=    3.100000000000000e+00     nrd=    2.301587301587301e-01     nrs=    2.301587301587301e-01     sa=    0.000000000000000e+00     sb=    0.000000000000000e+00     sd=    0.000000000000000e+00     m=    1.000000000000000e+00   
warning, can't find model 'sky130_fd_pr__pfet_01v8__model' from line
    m.x2.x7.xm2.msky130_fd_pr__pfet_01v8 x2.net3 x2.net2 vs vs sky130_fd_pr__pfet_01v8__model l=    1.500000000000000e-01     w=    1.260000000000000e+00     nf=    1.000000000000000e+00     ad=    3.654000000000000e-01     as=    3.654000000000000e-01     pd=    3.100000000000000e+00     ps=    3.100000000000000e+00     nrd=    2.301587301587301e-01     nrs=    2.301587301587301e-01     sa=    0.000000000000000e+00     sb=    0.000000000000000e+00     sd=    0.000000000000000e+00     m=    1.000000000000000e+00   
warning, can't find model 'sky130_fd_pr__nfet_01v8__model' from line
    m.x2.x7.xm3.msky130_fd_pr__nfet_01v8 x2.net3 x2.net4 x2.x7.net1 x2.x7.net1 sky130_fd_pr__nfet_01v8__model l=    1.500000000000000e-01     w=    8.400000000000000e-01     nf=    1.000000000000000e+00     ad=    2.436000000000000e-01     as=    2.436000000000000e-01     pd=    2.260000000000000e+00     ps=    2.260000000000000e+00     nrd=    3.452380952380952e-01     nrs=    3.452380952380952e-01     sa=    0.000000000000000e+00     sb=    0.000000000000000e+00     sd=    0.000000000000000e+00     m=    1.000000000000000e+00   
warning, can't find model 'sky130_fd_pr__nfet_01v8__model' from line
    m.x2.x7.xm4.msky130_fd_pr__nfet_01v8 x2.x7.net1 x2.net2 0 0 sky130_fd_pr__nfet_01v8__model l=    1.500000000000000e-01     w=    8.400000000000000e-01     nf=    1.000000000000000e+00     ad=    2.436000000000000e-01     as=    2.436000000000000e-01     pd=    2.260000000000000e+00     ps=    2.260000000000000e+00     nrd=    3.452380952380952e-01     nrs=    3.452380952380952e-01     sa=    0.000000000000000e+00     sb=    0.000000000000000e+00     sd=    0.000000000000000e+00     m=    1.000000000000000e+00   
warning, can't find model 'sky130_fd_pr__nfet_01v8__model' from line
    m.x2.x8.xm1.msky130_fd_pr__nfet_01v8 x2.net2 x2.net3 x2.x8.net1 0 sky130_fd_pr__nfet_01v8__model l=    1.500000000000000e-01     w=    1.260000000000000e+00     nf=    1.000000000000000e+00     ad=    3.654000000000000e-01     as=    3.654000000000000e-01     pd=    3.100000000000000e+00     ps=    3.100000000000000e+00     nrd=    2.301587301587301e-01     nrs=    2.301587301587301e-01     sa=    0.000000000000000e+00     sb=    0.000000000000000e+00     sd=    0.000000000000000e+00     m=    1.000000000000000e+00   
warning, can't find model 'sky130_fd_pr__nfet_01v8__model' from line
    m.x2.x8.xm2.msky130_fd_pr__nfet_01v8 x2.x8.net1 clk/2 x2.x8.net2 0 sky130_fd_pr__nfet_01v8__model l=    1.500000000000000e-01     w=    1.260000000000000e+00     nf=    1.000000000000000e+00     ad=    3.654000000000000e-01     as=    3.654000000000000e-01     pd=    3.100000000000000e+00     ps=    3.100000000000000e+00     nrd=    2.301587301587301e-01     nrs=    2.301587301587301e-01     sa=    0.000000000000000e+00     sb=    0.000000000000000e+00     sd=    0.000000000000000e+00     m=    1.000000000000000e+00   
warning, can't find model 'sky130_fd_pr__nfet_01v8__model' from line
    m.x2.x8.xm3.msky130_fd_pr__nfet_01v8 x2.x8.net2 rst 0 0 sky130_fd_pr__nfet_01v8__model l=    1.500000000000000e-01     w=    1.260000000000000e+00     nf=    1.000000000000000e+00     ad=    3.654000000000000e-01     as=    3.654000000000000e-01     pd=    3.100000000000000e+00     ps=    3.100000000000000e+00     nrd=    2.301587301587301e-01     nrs=    2.301587301587301e-01     sa=    0.000000000000000e+00     sb=    0.000000000000000e+00     sd=    0.000000000000000e+00     m=    1.000000000000000e+00   
warning, can't find model 'sky130_fd_pr__pfet_01v8__model' from line
    m.x2.x8.xm4.msky130_fd_pr__pfet_01v8 x2.net2 x2.net3 vs vs sky130_fd_pr__pfet_01v8__model l=    1.500000000000000e-01     w=    1.260000000000000e+00     nf=    1.000000000000000e+00     ad=    3.654000000000000e-01     as=    3.654000000000000e-01     pd=    3.100000000000000e+00     ps=    3.100000000000000e+00     nrd=    2.301587301587301e-01     nrs=    2.301587301587301e-01     sa=    0.000000000000000e+00     sb=    0.000000000000000e+00     sd=    0.000000000000000e+00     m=    1.000000000000000e+00   
warning, can't find model 'sky130_fd_pr__pfet_01v8__model' from line
    m.x2.x8.xm5.msky130_fd_pr__pfet_01v8 x2.net2 clk/2 vs vs sky130_fd_pr__pfet_01v8__model l=    1.500000000000000e-01     w=    1.260000000000000e+00     nf=    1.000000000000000e+00     ad=    3.654000000000000e-01     as=    3.654000000000000e-01     pd=    3.100000000000000e+00     ps=    3.100000000000000e+00     nrd=    2.301587301587301e-01     nrs=    2.301587301587301e-01     sa=    0.000000000000000e+00     sb=    0.000000000000000e+00     sd=    0.000000000000000e+00     m=    1.000000000000000e+00   
warning, can't find model 'sky130_fd_pr__pfet_01v8__model' from line
    m.x2.x8.xm6.msky130_fd_pr__pfet_01v8 x2.net2 rst vs vs sky130_fd_pr__pfet_01v8__model l=    1.500000000000000e-01     w=    1.260000000000000e+00     nf=    1.000000000000000e+00     ad=    3.654000000000000e-01     as=    3.654000000000000e-01     pd=    3.100000000000000e+00     ps=    3.100000000000000e+00     nrd=    2.301587301587301e-01     nrs=    2.301587301587301e-01     sa=    0.000000000000000e+00     sb=    0.000000000000000e+00     sd=    0.000000000000000e+00     m=    1.000000000000000e+00   
warning, can't find model 'sky130_fd_pr__nfet_01v8__model' from line
    m.x2.x6.xm1.msky130_fd_pr__nfet_01v8 net2 clk/4 x2.x6.net1 0 sky130_fd_pr__nfet_01v8__model l=    1.500000000000000e-01     w=    1.260000000000000e+00     nf=    1.000000000000000e+00     ad=    3.654000000000000e-01     as=    3.654000000000000e-01     pd=    3.100000000000000e+00     ps=    3.100000000000000e+00     nrd=    2.301587301587301e-01     nrs=    2.301587301587301e-01     sa=    0.000000000000000e+00     sb=    0.000000000000000e+00     sd=    0.000000000000000e+00     m=    1.000000000000000e+00   
warning, can't find model 'sky130_fd_pr__nfet_01v8__model' from line
    m.x2.x6.xm2.msky130_fd_pr__nfet_01v8 x2.x6.net1 x2.net1 x2.x6.net2 0 sky130_fd_pr__nfet_01v8__model l=    1.500000000000000e-01     w=    1.260000000000000e+00     nf=    1.000000000000000e+00     ad=    3.654000000000000e-01     as=    3.654000000000000e-01     pd=    3.100000000000000e+00     ps=    3.100000000000000e+00     nrd=    2.301587301587301e-01     nrs=    2.301587301587301e-01     sa=    0.000000000000000e+00     sb=    0.000000000000000e+00     sd=    0.000000000000000e+00     m=    1.000000000000000e+00   
warning, can't find model 'sky130_fd_pr__nfet_01v8__model' from line
    m.x2.x6.xm3.msky130_fd_pr__nfet_01v8 x2.x6.net2 rst 0 0 sky130_fd_pr__nfet_01v8__model l=    1.500000000000000e-01     w=    1.260000000000000e+00     nf=    1.000000000000000e+00     ad=    3.654000000000000e-01     as=    3.654000000000000e-01     pd=    3.100000000000000e+00     ps=    3.100000000000000e+00     nrd=    2.301587301587301e-01     nrs=    2.301587301587301e-01     sa=    0.000000000000000e+00     sb=    0.000000000000000e+00     sd=    0.000000000000000e+00     m=    1.000000000000000e+00   
warning, can't find model 'sky130_fd_pr__pfet_01v8__model' from line
    m.x2.x6.xm4.msky130_fd_pr__pfet_01v8 net2 clk/4 vs vs sky130_fd_pr__pfet_01v8__model l=    1.500000000000000e-01     w=    1.260000000000000e+00     nf=    1.000000000000000e+00     ad=    3.654000000000000e-01     as=    3.654000000000000e-01     pd=    3.100000000000000e+00     ps=    3.100000000000000e+00     nrd=    2.301587301587301e-01     nrs=    2.301587301587301e-01     sa=    0.000000000000000e+00     sb=    0.000000000000000e+00     sd=    0.000000000000000e+00     m=    1.000000000000000e+00   
warning, can't find model 'sky130_fd_pr__pfet_01v8__model' from line
    m.x2.x6.xm5.msky130_fd_pr__pfet_01v8 net2 x2.net1 vs vs sky130_fd_pr__pfet_01v8__model l=    1.500000000000000e-01     w=    1.260000000000000e+00     nf=    1.000000000000000e+00     ad=    3.654000000000000e-01     as=    3.654000000000000e-01     pd=    3.100000000000000e+00     ps=    3.100000000000000e+00     nrd=    2.301587301587301e-01     nrs=    2.301587301587301e-01     sa=    0.000000000000000e+00     sb=    0.000000000000000e+00     sd=    0.000000000000000e+00     m=    1.000000000000000e+00   
warning, can't find model 'sky130_fd_pr__pfet_01v8__model' from line
    m.x2.x6.xm6.msky130_fd_pr__pfet_01v8 net2 rst vs vs sky130_fd_pr__pfet_01v8__model l=    1.500000000000000e-01     w=    1.260000000000000e+00     nf=    1.000000000000000e+00     ad=    3.654000000000000e-01     as=    3.654000000000000e-01     pd=    3.100000000000000e+00     ps=    3.100000000000000e+00     nrd=    2.301587301587301e-01     nrs=    2.301587301587301e-01     sa=    0.000000000000000e+00     sb=    0.000000000000000e+00     sd=    0.000000000000000e+00     m=    1.000000000000000e+00   
warning, can't find model 'sky130_fd_pr__nfet_01v8__model' from line
    m.x2.x4.xm1.msky130_fd_pr__nfet_01v8 x2.net1 x2.net2 x2.x4.net1 0 sky130_fd_pr__nfet_01v8__model l=    1.500000000000000e-01     w=    1.260000000000000e+00     nf=    1.000000000000000e+00     ad=    3.654000000000000e-01     as=    3.654000000000000e-01     pd=    3.100000000000000e+00     ps=    3.100000000000000e+00     nrd=    2.301587301587301e-01     nrs=    2.301587301587301e-01     sa=    0.000000000000000e+00     sb=    0.000000000000000e+00     sd=    0.000000000000000e+00     m=    1.000000000000000e+00   
warning, can't find model 'sky130_fd_pr__nfet_01v8__model' from line
    m.x2.x4.xm2.msky130_fd_pr__nfet_01v8 x2.x4.net1 clk/2 x2.x4.net2 0 sky130_fd_pr__nfet_01v8__model l=    1.500000000000000e-01     w=    1.260000000000000e+00     nf=    1.000000000000000e+00     ad=    3.654000000000000e-01     as=    3.654000000000000e-01     pd=    3.100000000000000e+00     ps=    3.100000000000000e+00     nrd=    2.301587301587301e-01     nrs=    2.301587301587301e-01     sa=    0.000000000000000e+00     sb=    0.000000000000000e+00     sd=    0.000000000000000e+00     m=    1.000000000000000e+00   
warning, can't find model 'sky130_fd_pr__nfet_01v8__model' from line
    m.x2.x4.xm3.msky130_fd_pr__nfet_01v8 x2.x4.net2 x2.net4 0 0 sky130_fd_pr__nfet_01v8__model l=    1.500000000000000e-01     w=    1.260000000000000e+00     nf=    1.000000000000000e+00     ad=    3.654000000000000e-01     as=    3.654000000000000e-01     pd=    3.100000000000000e+00     ps=    3.100000000000000e+00     nrd=    2.301587301587301e-01     nrs=    2.301587301587301e-01     sa=    0.000000000000000e+00     sb=    0.000000000000000e+00     sd=    0.000000000000000e+00     m=    1.000000000000000e+00   
warning, can't find model 'sky130_fd_pr__pfet_01v8__model' from line
    m.x2.x4.xm4.msky130_fd_pr__pfet_01v8 x2.net1 x2.net2 vs vs sky130_fd_pr__pfet_01v8__model l=    1.500000000000000e-01     w=    1.260000000000000e+00     nf=    1.000000000000000e+00     ad=    3.654000000000000e-01     as=    3.654000000000000e-01     pd=    3.100000000000000e+00     ps=    3.100000000000000e+00     nrd=    2.301587301587301e-01     nrs=    2.301587301587301e-01     sa=    0.000000000000000e+00     sb=    0.000000000000000e+00     sd=    0.000000000000000e+00     m=    1.000000000000000e+00   
warning, can't find model 'sky130_fd_pr__pfet_01v8__model' from line
    m.x2.x4.xm5.msky130_fd_pr__pfet_01v8 x2.net1 clk/2 vs vs sky130_fd_pr__pfet_01v8__model l=    1.500000000000000e-01     w=    1.260000000000000e+00     nf=    1.000000000000000e+00     ad=    3.654000000000000e-01     as=    3.654000000000000e-01     pd=    3.100000000000000e+00     ps=    3.100000000000000e+00     nrd=    2.301587301587301e-01     nrs=    2.301587301587301e-01     sa=    0.000000000000000e+00     sb=    0.000000000000000e+00     sd=    0.000000000000000e+00     m=    1.000000000000000e+00   
warning, can't find model 'sky130_fd_pr__pfet_01v8__model' from line
    m.x2.x4.xm6.msky130_fd_pr__pfet_01v8 x2.net1 x2.net4 vs vs sky130_fd_pr__pfet_01v8__model l=    1.500000000000000e-01     w=    1.260000000000000e+00     nf=    1.000000000000000e+00     ad=    3.654000000000000e-01     as=    3.654000000000000e-01     pd=    3.100000000000000e+00     ps=    3.100000000000000e+00     nrd=    2.301587301587301e-01     nrs=    2.301587301587301e-01     sa=    0.000000000000000e+00     sb=    0.000000000000000e+00     sd=    0.000000000000000e+00     m=    1.000000000000000e+00   
warning, can't find model 'sky130_fd_pr__nfet_01v8__model' from line
    m.x2.x5.xm1.msky130_fd_pr__nfet_01v8 x2.net4 x2.net1 x2.x5.net1 0 sky130_fd_pr__nfet_01v8__model l=    1.500000000000000e-01     w=    1.260000000000000e+00     nf=    1.000000000000000e+00     ad=    3.654000000000000e-01     as=    3.654000000000000e-01     pd=    3.100000000000000e+00     ps=    3.100000000000000e+00     nrd=    2.301587301587301e-01     nrs=    2.301587301587301e-01     sa=    0.000000000000000e+00     sb=    0.000000000000000e+00     sd=    0.000000000000000e+00     m=    1.000000000000000e+00   
warning, can't find model 'sky130_fd_pr__nfet_01v8__model' from line
    m.x2.x5.xm2.msky130_fd_pr__nfet_01v8 x2.x5.net1 net2 x2.x5.net2 0 sky130_fd_pr__nfet_01v8__model l=    1.500000000000000e-01     w=    1.260000000000000e+00     nf=    1.000000000000000e+00     ad=    3.654000000000000e-01     as=    3.654000000000000e-01     pd=    3.100000000000000e+00     ps=    3.100000000000000e+00     nrd=    2.301587301587301e-01     nrs=    2.301587301587301e-01     sa=    0.000000000000000e+00     sb=    0.000000000000000e+00     sd=    0.000000000000000e+00     m=    1.000000000000000e+00   
warning, can't find model 'sky130_fd_pr__nfet_01v8__model' from line
    m.x2.x5.xm3.msky130_fd_pr__nfet_01v8 x2.x5.net2 rst 0 0 sky130_fd_pr__nfet_01v8__model l=    1.500000000000000e-01     w=    1.260000000000000e+00     nf=    1.000000000000000e+00     ad=    3.654000000000000e-01     as=    3.654000000000000e-01     pd=    3.100000000000000e+00     ps=    3.100000000000000e+00     nrd=    2.301587301587301e-01     nrs=    2.301587301587301e-01     sa=    0.000000000000000e+00     sb=    0.000000000000000e+00     sd=    0.000000000000000e+00     m=    1.000000000000000e+00   
warning, can't find model 'sky130_fd_pr__pfet_01v8__model' from line
    m.x2.x5.xm4.msky130_fd_pr__pfet_01v8 x2.net4 x2.net1 vs vs sky130_fd_pr__pfet_01v8__model l=    1.500000000000000e-01     w=    1.260000000000000e+00     nf=    1.000000000000000e+00     ad=    3.654000000000000e-01     as=    3.654000000000000e-01     pd=    3.100000000000000e+00     ps=    3.100000000000000e+00     nrd=    2.301587301587301e-01     nrs=    2.301587301587301e-01     sa=    0.000000000000000e+00     sb=    0.000000000000000e+00     sd=    0.000000000000000e+00     m=    1.000000000000000e+00   
warning, can't find model 'sky130_fd_pr__pfet_01v8__model' from line
    m.x2.x5.xm5.msky130_fd_pr__pfet_01v8 x2.net4 net2 vs vs sky130_fd_pr__pfet_01v8__model l=    1.500000000000000e-01     w=    1.260000000000000e+00     nf=    1.000000000000000e+00     ad=    3.654000000000000e-01     as=    3.654000000000000e-01     pd=    3.100000000000000e+00     ps=    3.100000000000000e+00     nrd=    2.301587301587301e-01     nrs=    2.301587301587301e-01     sa=    0.000000000000000e+00     sb=    0.000000000000000e+00     sd=    0.000000000000000e+00     m=    1.000000000000000e+00   
warning, can't find model 'sky130_fd_pr__pfet_01v8__model' from line
    m.x2.x5.xm6.msky130_fd_pr__pfet_01v8 x2.net4 rst vs vs sky130_fd_pr__pfet_01v8__model l=    1.500000000000000e-01     w=    1.260000000000000e+00     nf=    1.000000000000000e+00     ad=    3.654000000000000e-01     as=    3.654000000000000e-01     pd=    3.100000000000000e+00     ps=    3.100000000000000e+00     nrd=    2.301587301587301e-01     nrs=    2.301587301587301e-01     sa=    0.000000000000000e+00     sb=    0.000000000000000e+00     sd=    0.000000000000000e+00     m=    1.000000000000000e+00   
warning, can't find model 'sky130_fd_pr__pfet_01v8__model' from line
    m.x2.x1.xm1.msky130_fd_pr__pfet_01v8 clk/4 x2.net2 vs vs sky130_fd_pr__pfet_01v8__model l=    1.500000000000000e-01     w=    1.260000000000000e+00     nf=    1.000000000000000e+00     ad=    3.654000000000000e-01     as=    3.654000000000000e-01     pd=    3.100000000000000e+00     ps=    3.100000000000000e+00     nrd=    2.301587301587301e-01     nrs=    2.301587301587301e-01     sa=    0.000000000000000e+00     sb=    0.000000000000000e+00     sd=    0.000000000000000e+00     m=    1.000000000000000e+00   
warning, can't find model 'sky130_fd_pr__pfet_01v8__model' from line
    m.x2.x1.xm2.msky130_fd_pr__pfet_01v8 clk/4 net2 vs vs sky130_fd_pr__pfet_01v8__model l=    1.500000000000000e-01     w=    1.260000000000000e+00     nf=    1.000000000000000e+00     ad=    3.654000000000000e-01     as=    3.654000000000000e-01     pd=    3.100000000000000e+00     ps=    3.100000000000000e+00     nrd=    2.301587301587301e-01     nrs=    2.301587301587301e-01     sa=    0.000000000000000e+00     sb=    0.000000000000000e+00     sd=    0.000000000000000e+00     m=    1.000000000000000e+00   
warning, can't find model 'sky130_fd_pr__nfet_01v8__model' from line
    m.x2.x1.xm3.msky130_fd_pr__nfet_01v8 clk/4 x2.net2 x2.x1.net1 x2.x1.net1 sky130_fd_pr__nfet_01v8__model l=    1.500000000000000e-01     w=    8.400000000000000e-01     nf=    1.000000000000000e+00     ad=    2.436000000000000e-01     as=    2.436000000000000e-01     pd=    2.260000000000000e+00     ps=    2.260000000000000e+00     nrd=    3.452380952380952e-01     nrs=    3.452380952380952e-01     sa=    0.000000000000000e+00     sb=    0.000000000000000e+00     sd=    0.000000000000000e+00     m=    1.000000000000000e+00   
warning, can't find model 'sky130_fd_pr__nfet_01v8__model' from line
    m.x2.x1.xm4.msky130_fd_pr__nfet_01v8 x2.x1.net1 net2 0 0 sky130_fd_pr__nfet_01v8__model l=    1.500000000000000e-01     w=    8.400000000000000e-01     nf=    1.000000000000000e+00     ad=    2.436000000000000e-01     as=    2.436000000000000e-01     pd=    2.260000000000000e+00     ps=    2.260000000000000e+00     nrd=    3.452380952380952e-01     nrs=    3.452380952380952e-01     sa=    0.000000000000000e+00     sb=    0.000000000000000e+00     sd=    0.000000000000000e+00     m=    1.000000000000000e+00   
warning, can't find model 'sky130_fd_pr__nfet_01v8__model' from line
    m.x0.msky130_fd_pr__nfet_01v8 vp cks vn vn sky130_fd_pr__nfet_01v8__model l=    1.500000000000000e-01     w=    1.000000000000000e+01     nf=    1.000000000000000e+00     ad=    0.000000000000000e+00     as=    0.000000000000000e+00     pd=    0.000000000000000e+00     ps=    0.000000000000000e+00     nrd=    0.000000000000000e+00     nrs=    0.000000000000000e+00     sa=    0.000000000000000e+00     sb=    0.000000000000000e+00     sd=    0.000000000000000e+00     m=    1.000000000000000e+00   
warning, can't find model 'sky130_fd_pr__nfet_01v8__model' from line
    m.x1.msky130_fd_pr__nfet_01v8 vn cks vp vn sky130_fd_pr__nfet_01v8__model l=    1.500000000000000e-01     w=    1.000000000000000e+01     nf=    1.000000000000000e+00     ad=    0.000000000000000e+00     as=    0.000000000000000e+00     pd=    0.000000000000000e+00     ps=    0.000000000000000e+00     nrd=    0.000000000000000e+00     nrs=    0.000000000000000e+00     sa=    0.000000000000000e+00     sb=    0.000000000000000e+00     sd=    0.000000000000000e+00     m=    1.000000000000000e+00   
warning, can't find model 'sky130_fd_pr__nfet_01v8__model' from line
    m.x2.msky130_fd_pr__nfet_01v8 vp cks vn vn sky130_fd_pr__nfet_01v8__model l=    1.500000000000000e-01     w=    1.000000000000000e+01     nf=    1.000000000000000e+00     ad=    0.000000000000000e+00     as=    0.000000000000000e+00     pd=    0.000000000000000e+00     ps=    0.000000000000000e+00     nrd=    0.000000000000000e+00     nrs=    0.000000000000000e+00     sa=    0.000000000000000e+00     sb=    0.000000000000000e+00     sd=    0.000000000000000e+00     m=    1.000000000000000e+00   
warning, can't find model 'sky130_fd_pr__nfet_01v8__model' from line
    m.x3.msky130_fd_pr__nfet_01v8 vn cks vp vn sky130_fd_pr__nfet_01v8__model l=    1.500000000000000e-01     w=    1.000000000000000e+01     nf=    1.000000000000000e+00     ad=    0.000000000000000e+00     as=    0.000000000000000e+00     pd=    0.000000000000000e+00     ps=    0.000000000000000e+00     nrd=    0.000000000000000e+00     nrs=    0.000000000000000e+00     sa=    0.000000000000000e+00     sb=    0.000000000000000e+00     sd=    0.000000000000000e+00     m=    1.000000000000000e+00   
warning, can't find model 'sky130_fd_pr__nfet_01v8__model' from line
    m.x4.msky130_fd_pr__nfet_01v8 vp cks vn vn sky130_fd_pr__nfet_01v8__model l=    1.500000000000000e-01     w=    1.000000000000000e+01     nf=    1.000000000000000e+00     ad=    0.000000000000000e+00     as=    0.000000000000000e+00     pd=    0.000000000000000e+00     ps=    0.000000000000000e+00     nrd=    0.000000000000000e+00     nrs=    0.000000000000000e+00     sa=    0.000000000000000e+00     sb=    0.000000000000000e+00     sd=    0.000000000000000e+00     m=    1.000000000000000e+00   
warning, can't find model 'sky130_fd_pr__nfet_01v8__model' from line
    m.x5.msky130_fd_pr__nfet_01v8 vn cks vp vn sky130_fd_pr__nfet_01v8__model l=    1.500000000000000e-01     w=    1.000000000000000e+01     nf=    1.000000000000000e+00     ad=    0.000000000000000e+00     as=    0.000000000000000e+00     pd=    0.000000000000000e+00     ps=    0.000000000000000e+00     nrd=    0.000000000000000e+00     nrs=    0.000000000000000e+00     sa=    0.000000000000000e+00     sb=    0.000000000000000e+00     sd=    0.000000000000000e+00     m=    1.000000000000000e+00   
warning, can't find model 'sky130_fd_pr__nfet_01v8__model' from line
    m.x6.msky130_fd_pr__nfet_01v8 vp cks vn vn sky130_fd_pr__nfet_01v8__model l=    1.500000000000000e-01     w=    1.000000000000000e+01     nf=    1.000000000000000e+00     ad=    0.000000000000000e+00     as=    0.000000000000000e+00     pd=    0.000000000000000e+00     ps=    0.000000000000000e+00     nrd=    0.000000000000000e+00     nrs=    0.000000000000000e+00     sa=    0.000000000000000e+00     sb=    0.000000000000000e+00     sd=    0.000000000000000e+00     m=    1.000000000000000e+00   
warning, can't find model 'sky130_fd_pr__nfet_01v8__model' from line
    m.x7.msky130_fd_pr__nfet_01v8 vn cks vp vn sky130_fd_pr__nfet_01v8__model l=    1.500000000000000e-01     w=    1.000000000000000e+01     nf=    1.000000000000000e+00     ad=    0.000000000000000e+00     as=    0.000000000000000e+00     pd=    0.000000000000000e+00     ps=    0.000000000000000e+00     nrd=    0.000000000000000e+00     nrs=    0.000000000000000e+00     sa=    0.000000000000000e+00     sb=    0.000000000000000e+00     sd=    0.000000000000000e+00     m=    1.000000000000000e+00   
warning, can't find model 'sky130_fd_pr__nfet_01v8__model' from line
    m.x8.msky130_fd_pr__nfet_01v8 vp cks vn vn sky130_fd_pr__nfet_01v8__model l=    1.500000000000000e-01     w=    1.000000000000000e+01     nf=    1.000000000000000e+00     ad=    0.000000000000000e+00     as=    0.000000000000000e+00     pd=    0.000000000000000e+00     ps=    0.000000000000000e+00     nrd=    0.000000000000000e+00     nrs=    0.000000000000000e+00     sa=    0.000000000000000e+00     sb=    0.000000000000000e+00     sd=    0.000000000000000e+00     m=    1.000000000000000e+00   
warning, can't find model 'sky130_fd_pr__nfet_01v8__model' from line
    m.x9.msky130_fd_pr__nfet_01v8 vp cks vn vn sky130_fd_pr__nfet_01v8__model l=    1.500000000000000e-01     w=    1.000000000000000e+01     nf=    1.000000000000000e+00     ad=    0.000000000000000e+00     as=    0.000000000000000e+00     pd=    0.000000000000000e+00     ps=    0.000000000000000e+00     nrd=    0.000000000000000e+00     nrs=    0.000000000000000e+00     sa=    0.000000000000000e+00     sb=    0.000000000000000e+00     sd=    0.000000000000000e+00     m=    1.000000000000000e+00   
warning, can't find model 'sky130_fd_pr__nfet_01v8__model' from line
    m.x10.msky130_fd_pr__nfet_01v8 vn cks vp vn sky130_fd_pr__nfet_01v8__model l=    1.500000000000000e-01     w=    1.000000000000000e+01     nf=    1.000000000000000e+00     ad=    0.000000000000000e+00     as=    0.000000000000000e+00     pd=    0.000000000000000e+00     ps=    0.000000000000000e+00     nrd=    0.000000000000000e+00     nrs=    0.000000000000000e+00     sa=    0.000000000000000e+00     sb=    0.000000000000000e+00     sd=    0.000000000000000e+00     m=    1.000000000000000e+00   
warning, can't find model 'sky130_fd_pr__nfet_01v8__model' from line
    m.x11.msky130_fd_pr__nfet_01v8 vn cks vp vn sky130_fd_pr__nfet_01v8__model l=    1.500000000000000e-01     w=    1.000000000000000e+01     nf=    1.000000000000000e+00     ad=    0.000000000000000e+00     as=    0.000000000000000e+00     pd=    0.000000000000000e+00     ps=    0.000000000000000e+00     nrd=    0.000000000000000e+00     nrs=    0.000000000000000e+00     sa=    0.000000000000000e+00     sb=    0.000000000000000e+00     sd=    0.000000000000000e+00     m=    1.000000000000000e+00   
warning, can't find model 'sky130_fd_pr__nfet_01v8__model' from line
    m.x12.msky130_fd_pr__nfet_01v8 vp cks vn vn sky130_fd_pr__nfet_01v8__model l=    1.500000000000000e-01     w=    1.000000000000000e+01     nf=    1.000000000000000e+00     ad=    0.000000000000000e+00     as=    0.000000000000000e+00     pd=    0.000000000000000e+00     ps=    0.000000000000000e+00     nrd=    0.000000000000000e+00     nrs=    0.000000000000000e+00     sa=    0.000000000000000e+00     sb=    0.000000000000000e+00     sd=    0.000000000000000e+00     m=    1.000000000000000e+00   
warning, can't find model 'sky130_fd_pr__nfet_01v8__model' from line
    m.x13.msky130_fd_pr__nfet_01v8 vp cks vn vn sky130_fd_pr__nfet_01v8__model l=    1.500000000000000e-01     w=    1.000000000000000e+01     nf=    1.000000000000000e+00     ad=    0.000000000000000e+00     as=    0.000000000000000e+00     pd=    0.000000000000000e+00     ps=    0.000000000000000e+00     nrd=    0.000000000000000e+00     nrs=    0.000000000000000e+00     sa=    0.000000000000000e+00     sb=    0.000000000000000e+00     sd=    0.000000000000000e+00     m=    1.000000000000000e+00   
warning, can't find model 'sky130_fd_pr__nfet_01v8__model' from line
    m.x14.msky130_fd_pr__nfet_01v8 vn cks vp vn sky130_fd_pr__nfet_01v8__model l=    1.500000000000000e-01     w=    1.000000000000000e+01     nf=    1.000000000000000e+00     ad=    0.000000000000000e+00     as=    0.000000000000000e+00     pd=    0.000000000000000e+00     ps=    0.000000000000000e+00     nrd=    0.000000000000000e+00     nrs=    0.000000000000000e+00     sa=    0.000000000000000e+00     sb=    0.000000000000000e+00     sd=    0.000000000000000e+00     m=    1.000000000000000e+00   
warning, can't find model 'sky130_fd_pr__nfet_01v8__model' from line
    m.x15.msky130_fd_pr__nfet_01v8 vp cks vn vn sky130_fd_pr__nfet_01v8__model l=    1.500000000000000e-01     w=    1.000000000000000e+01     nf=    1.000000000000000e+00     ad=    0.000000000000000e+00     as=    0.000000000000000e+00     pd=    0.000000000000000e+00     ps=    0.000000000000000e+00     nrd=    0.000000000000000e+00     nrs=    0.000000000000000e+00     sa=    0.000000000000000e+00     sb=    0.000000000000000e+00     sd=    0.000000000000000e+00     m=    1.000000000000000e+00   
warning, can't find model 'sky130_fd_pr__nfet_01v8__model' from line
    m.x16.msky130_fd_pr__nfet_01v8 vn cks vp vn sky130_fd_pr__nfet_01v8__model l=    1.500000000000000e-01     w=    1.000000000000000e+01     nf=    1.000000000000000e+00     ad=    0.000000000000000e+00     as=    0.000000000000000e+00     pd=    0.000000000000000e+00     ps=    0.000000000000000e+00     nrd=    0.000000000000000e+00     nrs=    0.000000000000000e+00     sa=    0.000000000000000e+00     sb=    0.000000000000000e+00     sd=    0.000000000000000e+00     m=    1.000000000000000e+00   
warning, can't find model 'sky130_fd_pr__nfet_01v8__model' from line
    m.x17.msky130_fd_pr__nfet_01v8 vp cks vn vn sky130_fd_pr__nfet_01v8__model l=    1.500000000000000e-01     w=    1.000000000000000e+01     nf=    1.000000000000000e+00     ad=    0.000000000000000e+00     as=    0.000000000000000e+00     pd=    0.000000000000000e+00     ps=    0.000000000000000e+00     nrd=    0.000000000000000e+00     nrs=    0.000000000000000e+00     sa=    0.000000000000000e+00     sb=    0.000000000000000e+00     sd=    0.000000000000000e+00     m=    1.000000000000000e+00   
warning, can't find model 'sky130_fd_pr__nfet_01v8__model' from line
    m.x18.msky130_fd_pr__nfet_01v8 vn cks vp vn sky130_fd_pr__nfet_01v8__model l=    1.500000000000000e-01     w=    1.000000000000000e+01     nf=    1.000000000000000e+00     ad=    0.000000000000000e+00     as=    0.000000000000000e+00     pd=    0.000000000000000e+00     ps=    0.000000000000000e+00     nrd=    0.000000000000000e+00     nrs=    0.000000000000000e+00     sa=    0.000000000000000e+00     sb=    0.000000000000000e+00     sd=    0.000000000000000e+00     m=    1.000000000000000e+00   
warning, can't find model 'sky130_fd_pr__nfet_01v8__model' from line
    m.x19.msky130_fd_pr__nfet_01v8 vn cks vp vn sky130_fd_pr__nfet_01v8__model l=    1.500000000000000e-01     w=    1.000000000000000e+01     nf=    1.000000000000000e+00     ad=    0.000000000000000e+00     as=    0.000000000000000e+00     pd=    0.000000000000000e+00     ps=    0.000000000000000e+00     nrd=    0.000000000000000e+00     nrs=    0.000000000000000e+00     sa=    0.000000000000000e+00     sb=    0.000000000000000e+00     sd=    0.000000000000000e+00     m=    1.000000000000000e+00   
warning, can't find model 'sky130_fd_pr__nfet_01v8__model' from line
    m.x20.msky130_fd_pr__nfet_01v8 vp cks vn vn sky130_fd_pr__nfet_01v8__model l=    1.500000000000000e-01     w=    1.000000000000000e+01     nf=    1.000000000000000e+00     ad=    0.000000000000000e+00     as=    0.000000000000000e+00     pd=    0.000000000000000e+00     ps=    0.000000000000000e+00     nrd=    0.000000000000000e+00     nrs=    0.000000000000000e+00     sa=    0.000000000000000e+00     sb=    0.000000000000000e+00     sd=    0.000000000000000e+00     m=    1.000000000000000e+00   
warning, can't find model 'sky130_fd_pr__nfet_01v8__model' from line
    m.x21.msky130_fd_pr__nfet_01v8 vp cks vn vn sky130_fd_pr__nfet_01v8__model l=    1.500000000000000e-01     w=    1.000000000000000e+01     nf=    1.000000000000000e+00     ad=    0.000000000000000e+00     as=    0.000000000000000e+00     pd=    0.000000000000000e+00     ps=    0.000000000000000e+00     nrd=    0.000000000000000e+00     nrs=    0.000000000000000e+00     sa=    0.000000000000000e+00     sb=    0.000000000000000e+00     sd=    0.000000000000000e+00     m=    1.000000000000000e+00   
warning, can't find model 'sky130_fd_pr__nfet_01v8__model' from line
    m.x22.msky130_fd_pr__nfet_01v8 vp cks vn vn sky130_fd_pr__nfet_01v8__model l=    1.500000000000000e-01     w=    1.000000000000000e+01     nf=    1.000000000000000e+00     ad=    0.000000000000000e+00     as=    0.000000000000000e+00     pd=    0.000000000000000e+00     ps=    0.000000000000000e+00     nrd=    0.000000000000000e+00     nrs=    0.000000000000000e+00     sa=    0.000000000000000e+00     sb=    0.000000000000000e+00     sd=    0.000000000000000e+00     m=    1.000000000000000e+00   
warning, can't find model 'sky130_fd_pr__nfet_01v8__model' from line
    m.x23.msky130_fd_pr__nfet_01v8 vn cks vp vn sky130_fd_pr__nfet_01v8__model l=    1.500000000000000e-01     w=    1.000000000000000e+01     nf=    1.000000000000000e+00     ad=    0.000000000000000e+00     as=    0.000000000000000e+00     pd=    0.000000000000000e+00     ps=    0.000000000000000e+00     nrd=    0.000000000000000e+00     nrs=    0.000000000000000e+00     sa=    0.000000000000000e+00     sb=    0.000000000000000e+00     sd=    0.000000000000000e+00     m=    1.000000000000000e+00   
warning, can't find model 'sky130_fd_pr__nfet_01v8__model' from line
    m.x24.msky130_fd_pr__nfet_01v8 vn cks vp vn sky130_fd_pr__nfet_01v8__model l=    1.500000000000000e-01     w=    1.000000000000000e+01     nf=    1.000000000000000e+00     ad=    0.000000000000000e+00     as=    0.000000000000000e+00     pd=    0.000000000000000e+00     ps=    0.000000000000000e+00     nrd=    0.000000000000000e+00     nrs=    0.000000000000000e+00     sa=    0.000000000000000e+00     sb=    0.000000000000000e+00     sd=    0.000000000000000e+00     m=    1.000000000000000e+00   
warning, can't find model 'sky130_fd_pr__nfet_01v8__model' from line
    m.x25.msky130_fd_pr__nfet_01v8 vn cks vp vn sky130_fd_pr__nfet_01v8__model l=    1.500000000000000e-01     w=    1.000000000000000e+01     nf=    1.000000000000000e+00     ad=    0.000000000000000e+00     as=    0.000000000000000e+00     pd=    0.000000000000000e+00     ps=    0.000000000000000e+00     nrd=    0.000000000000000e+00     nrs=    0.000000000000000e+00     sa=    0.000000000000000e+00     sb=    0.000000000000000e+00     sd=    0.000000000000000e+00     m=    1.000000000000000e+00   
warning, can't find model 'sky130_fd_pr__nfet_01v8__model' from line
    m.x26.msky130_fd_pr__nfet_01v8 vp cks vn vn sky130_fd_pr__nfet_01v8__model l=    1.500000000000000e-01     w=    1.000000000000000e+01     nf=    1.000000000000000e+00     ad=    0.000000000000000e+00     as=    0.000000000000000e+00     pd=    0.000000000000000e+00     ps=    0.000000000000000e+00     nrd=    0.000000000000000e+00     nrs=    0.000000000000000e+00     sa=    0.000000000000000e+00     sb=    0.000000000000000e+00     sd=    0.000000000000000e+00     m=    1.000000000000000e+00   
warning, can't find model 'sky130_fd_pr__nfet_01v8__model' from line
    m.x27.msky130_fd_pr__nfet_01v8 vn cks vp vn sky130_fd_pr__nfet_01v8__model l=    1.500000000000000e-01     w=    1.000000000000000e+01     nf=    1.000000000000000e+00     ad=    0.000000000000000e+00     as=    0.000000000000000e+00     pd=    0.000000000000000e+00     ps=    0.000000000000000e+00     nrd=    0.000000000000000e+00     nrs=    0.000000000000000e+00     sa=    0.000000000000000e+00     sb=    0.000000000000000e+00     sd=    0.000000000000000e+00     m=    1.000000000000000e+00   
warning, can't find model 'sky130_fd_pr__nfet_01v8__model' from line
    m.x28.msky130_fd_pr__nfet_01v8 vp cks vn vn sky130_fd_pr__nfet_01v8__model l=    1.500000000000000e-01     w=    1.000000000000000e+01     nf=    1.000000000000000e+00     ad=    0.000000000000000e+00     as=    0.000000000000000e+00     pd=    0.000000000000000e+00     ps=    0.000000000000000e+00     nrd=    0.000000000000000e+00     nrs=    0.000000000000000e+00     sa=    0.000000000000000e+00     sb=    0.000000000000000e+00     sd=    0.000000000000000e+00     m=    1.000000000000000e+00   
warning, can't find model 'sky130_fd_pr__nfet_01v8__model' from line
    m.x29.msky130_fd_pr__nfet_01v8 vp cks vn vn sky130_fd_pr__nfet_01v8__model l=    1.500000000000000e-01     w=    1.000000000000000e+01     nf=    1.000000000000000e+00     ad=    0.000000000000000e+00     as=    0.000000000000000e+00     pd=    0.000000000000000e+00     ps=    0.000000000000000e+00     nrd=    0.000000000000000e+00     nrs=    0.000000000000000e+00     sa=    0.000000000000000e+00     sb=    0.000000000000000e+00     sd=    0.000000000000000e+00     m=    1.000000000000000e+00   
warning, can't find model 'sky130_fd_pr__nfet_01v8__model' from line
    m.x30.msky130_fd_pr__nfet_01v8 vn cks vp vn sky130_fd_pr__nfet_01v8__model l=    1.500000000000000e-01     w=    1.000000000000000e+01     nf=    1.000000000000000e+00     ad=    0.000000000000000e+00     as=    0.000000000000000e+00     pd=    0.000000000000000e+00     ps=    0.000000000000000e+00     nrd=    0.000000000000000e+00     nrs=    0.000000000000000e+00     sa=    0.000000000000000e+00     sb=    0.000000000000000e+00     sd=    0.000000000000000e+00     m=    1.000000000000000e+00   
warning, can't find model 'sky130_fd_pr__nfet_01v8__model' from line
    m.x31.msky130_fd_pr__nfet_01v8 vp cks vn vn sky130_fd_pr__nfet_01v8__model l=    1.500000000000000e-01     w=    1.000000000000000e+01     nf=    1.000000000000000e+00     ad=    0.000000000000000e+00     as=    0.000000000000000e+00     pd=    0.000000000000000e+00     ps=    0.000000000000000e+00     nrd=    0.000000000000000e+00     nrs=    0.000000000000000e+00     sa=    0.000000000000000e+00     sb=    0.000000000000000e+00     sd=    0.000000000000000e+00     m=    1.000000000000000e+00   
warning, can't find model 'sky130_fd_pr__nfet_01v8__model' from line
    m.x32.msky130_fd_pr__nfet_01v8 vn cks vp vn sky130_fd_pr__nfet_01v8__model l=    1.500000000000000e-01     w=    1.000000000000000e+01     nf=    1.000000000000000e+00     ad=    0.000000000000000e+00     as=    0.000000000000000e+00     pd=    0.000000000000000e+00     ps=    0.000000000000000e+00     nrd=    0.000000000000000e+00     nrs=    0.000000000000000e+00     sa=    0.000000000000000e+00     sb=    0.000000000000000e+00     sd=    0.000000000000000e+00     m=    1.000000000000000e+00   
warning, can't find model 'sky130_fd_pr__nfet_01v8__model' from line
    m.x33.msky130_fd_pr__nfet_01v8 vp cks vn vn sky130_fd_pr__nfet_01v8__model l=    1.500000000000000e-01     w=    1.000000000000000e+01     nf=    1.000000000000000e+00     ad=    0.000000000000000e+00     as=    0.000000000000000e+00     pd=    0.000000000000000e+00     ps=    0.000000000000000e+00     nrd=    0.000000000000000e+00     nrs=    0.000000000000000e+00     sa=    0.000000000000000e+00     sb=    0.000000000000000e+00     sd=    0.000000000000000e+00     m=    1.000000000000000e+00   
warning, can't find model 'sky130_fd_pr__nfet_01v8__model' from line
    m.x34.msky130_fd_pr__nfet_01v8 vn cks vp vn sky130_fd_pr__nfet_01v8__model l=    1.500000000000000e-01     w=    1.000000000000000e+01     nf=    1.000000000000000e+00     ad=    0.000000000000000e+00     as=    0.000000000000000e+00     pd=    0.000000000000000e+00     ps=    0.000000000000000e+00     nrd=    0.000000000000000e+00     nrs=    0.000000000000000e+00     sa=    0.000000000000000e+00     sb=    0.000000000000000e+00     sd=    0.000000000000000e+00     m=    1.000000000000000e+00   
warning, can't find model 'sky130_fd_pr__nfet_01v8__model' from line
    m.x35.msky130_fd_pr__nfet_01v8 vn cks vp vn sky130_fd_pr__nfet_01v8__model l=    1.500000000000000e-01     w=    1.000000000000000e+01     nf=    1.000000000000000e+00     ad=    0.000000000000000e+00     as=    0.000000000000000e+00     pd=    0.000000000000000e+00     ps=    0.000000000000000e+00     nrd=    0.000000000000000e+00     nrs=    0.000000000000000e+00     sa=    0.000000000000000e+00     sb=    0.000000000000000e+00     sd=    0.000000000000000e+00     m=    1.000000000000000e+00   
warning, can't find model 'sky130_fd_pr__nfet_01v8__model' from line
    m.x36.msky130_fd_pr__nfet_01v8 vp cks vn vn sky130_fd_pr__nfet_01v8__model l=    1.500000000000000e-01     w=    1.000000000000000e+01     nf=    1.000000000000000e+00     ad=    0.000000000000000e+00     as=    0.000000000000000e+00     pd=    0.000000000000000e+00     ps=    0.000000000000000e+00     nrd=    0.000000000000000e+00     nrs=    0.000000000000000e+00     sa=    0.000000000000000e+00     sb=    0.000000000000000e+00     sd=    0.000000000000000e+00     m=    1.000000000000000e+00   
warning, can't find model 'sky130_fd_pr__nfet_01v8__model' from line
    m.x37.msky130_fd_pr__nfet_01v8 vp cks vn vn sky130_fd_pr__nfet_01v8__model l=    1.500000000000000e-01     w=    1.000000000000000e+01     nf=    1.000000000000000e+00     ad=    0.000000000000000e+00     as=    0.000000000000000e+00     pd=    0.000000000000000e+00     ps=    0.000000000000000e+00     nrd=    0.000000000000000e+00     nrs=    0.000000000000000e+00     sa=    0.000000000000000e+00     sb=    0.000000000000000e+00     sd=    0.000000000000000e+00     m=    1.000000000000000e+00   
warning, can't find model 'sky130_fd_pr__nfet_01v8__model' from line
    m.x38.msky130_fd_pr__nfet_01v8 vp cks vn vn sky130_fd_pr__nfet_01v8__model l=    1.500000000000000e-01     w=    1.000000000000000e+01     nf=    1.000000000000000e+00     ad=    0.000000000000000e+00     as=    0.000000000000000e+00     pd=    0.000000000000000e+00     ps=    0.000000000000000e+00     nrd=    0.000000000000000e+00     nrs=    0.000000000000000e+00     sa=    0.000000000000000e+00     sb=    0.000000000000000e+00     sd=    0.000000000000000e+00     m=    1.000000000000000e+00   
warning, can't find model 'sky130_fd_pr__nfet_01v8__model' from line
    m.x39.msky130_fd_pr__nfet_01v8 vn cks vp vn sky130_fd_pr__nfet_01v8__model l=    1.500000000000000e-01     w=    1.000000000000000e+01     nf=    1.000000000000000e+00     ad=    0.000000000000000e+00     as=    0.000000000000000e+00     pd=    0.000000000000000e+00     ps=    0.000000000000000e+00     nrd=    0.000000000000000e+00     nrs=    0.000000000000000e+00     sa=    0.000000000000000e+00     sb=    0.000000000000000e+00     sd=    0.000000000000000e+00     m=    1.000000000000000e+00   
warning, can't find model 'sky130_fd_pr__nfet_01v8__model' from line
    m.x40.msky130_fd_pr__nfet_01v8 vn cks vp vn sky130_fd_pr__nfet_01v8__model l=    1.500000000000000e-01     w=    1.000000000000000e+01     nf=    1.000000000000000e+00     ad=    0.000000000000000e+00     as=    0.000000000000000e+00     pd=    0.000000000000000e+00     ps=    0.000000000000000e+00     nrd=    0.000000000000000e+00     nrs=    0.000000000000000e+00     sa=    0.000000000000000e+00     sb=    0.000000000000000e+00     sd=    0.000000000000000e+00     m=    1.000000000000000e+00   
warning, can't find model 'sky130_fd_pr__nfet_01v8__model' from line
    m.x41.msky130_fd_pr__nfet_01v8 vp cks vn vn sky130_fd_pr__nfet_01v8__model l=    1.500000000000000e-01     w=    1.000000000000000e+01     nf=    1.000000000000000e+00     ad=    0.000000000000000e+00     as=    0.000000000000000e+00     pd=    0.000000000000000e+00     ps=    0.000000000000000e+00     nrd=    0.000000000000000e+00     nrs=    0.000000000000000e+00     sa=    0.000000000000000e+00     sb=    0.000000000000000e+00     sd=    0.000000000000000e+00     m=    1.000000000000000e+00   
warning, can't find model 'sky130_fd_pr__nfet_01v8__model' from line
    m.x42.msky130_fd_pr__nfet_01v8 vn cks vp vn sky130_fd_pr__nfet_01v8__model l=    1.500000000000000e-01     w=    1.000000000000000e+01     nf=    1.000000000000000e+00     ad=    0.000000000000000e+00     as=    0.000000000000000e+00     pd=    0.000000000000000e+00     ps=    0.000000000000000e+00     nrd=    0.000000000000000e+00     nrs=    0.000000000000000e+00     sa=    0.000000000000000e+00     sb=    0.000000000000000e+00     sd=    0.000000000000000e+00     m=    1.000000000000000e+00   
warning, can't find model 'sky130_fd_pr__nfet_01v8__model' from line
    m.x43.msky130_fd_pr__nfet_01v8 vp cks vn vn sky130_fd_pr__nfet_01v8__model l=    1.500000000000000e-01     w=    1.000000000000000e+01     nf=    1.000000000000000e+00     ad=    0.000000000000000e+00     as=    0.000000000000000e+00     pd=    0.000000000000000e+00     ps=    0.000000000000000e+00     nrd=    0.000000000000000e+00     nrs=    0.000000000000000e+00     sa=    0.000000000000000e+00     sb=    0.000000000000000e+00     sd=    0.000000000000000e+00     m=    1.000000000000000e+00   
warning, can't find model 'sky130_fd_pr__nfet_01v8__model' from line
    m.x44.msky130_fd_pr__nfet_01v8 vp cks vn vn sky130_fd_pr__nfet_01v8__model l=    1.500000000000000e-01     w=    1.000000000000000e+01     nf=    1.000000000000000e+00     ad=    0.000000000000000e+00     as=    0.000000000000000e+00     pd=    0.000000000000000e+00     ps=    0.000000000000000e+00     nrd=    0.000000000000000e+00     nrs=    0.000000000000000e+00     sa=    0.000000000000000e+00     sb=    0.000000000000000e+00     sd=    0.000000000000000e+00     m=    1.000000000000000e+00   
warning, can't find model 'sky130_fd_pr__nfet_01v8__model' from line
    m.x45.msky130_fd_pr__nfet_01v8 vn cks vp vn sky130_fd_pr__nfet_01v8__model l=    1.500000000000000e-01     w=    1.000000000000000e+01     nf=    1.000000000000000e+00     ad=    0.000000000000000e+00     as=    0.000000000000000e+00     pd=    0.000000000000000e+00     ps=    0.000000000000000e+00     nrd=    0.000000000000000e+00     nrs=    0.000000000000000e+00     sa=    0.000000000000000e+00     sb=    0.000000000000000e+00     sd=    0.000000000000000e+00     m=    1.000000000000000e+00   
warning, can't find model 'sky130_fd_pr__nfet_01v8__model' from line
    m.x46.msky130_fd_pr__nfet_01v8 vn cks vp vn sky130_fd_pr__nfet_01v8__model l=    1.500000000000000e-01     w=    1.000000000000000e+01     nf=    1.000000000000000e+00     ad=    0.000000000000000e+00     as=    0.000000000000000e+00     pd=    0.000000000000000e+00     ps=    0.000000000000000e+00     nrd=    0.000000000000000e+00     nrs=    0.000000000000000e+00     sa=    0.000000000000000e+00     sb=    0.000000000000000e+00     sd=    0.000000000000000e+00     m=    1.000000000000000e+00   
warning, can't find model 'sky130_fd_pr__nfet_01v8__model' from line
    m.x47.msky130_fd_pr__nfet_01v8 vp cks vn vn sky130_fd_pr__nfet_01v8__model l=    1.500000000000000e-01     w=    1.000000000000000e+01     nf=    1.000000000000000e+00     ad=    0.000000000000000e+00     as=    0.000000000000000e+00     pd=    0.000000000000000e+00     ps=    0.000000000000000e+00     nrd=    0.000000000000000e+00     nrs=    0.000000000000000e+00     sa=    0.000000000000000e+00     sb=    0.000000000000000e+00     sd=    0.000000000000000e+00     m=    1.000000000000000e+00   
warning, can't find model 'sky130_fd_pr__nfet_01v8__model' from line
    m.x48.msky130_fd_pr__nfet_01v8 vp cks vn vn sky130_fd_pr__nfet_01v8__model l=    1.500000000000000e-01     w=    1.000000000000000e+01     nf=    1.000000000000000e+00     ad=    0.000000000000000e+00     as=    0.000000000000000e+00     pd=    0.000000000000000e+00     ps=    0.000000000000000e+00     nrd=    0.000000000000000e+00     nrs=    0.000000000000000e+00     sa=    0.000000000000000e+00     sb=    0.000000000000000e+00     sd=    0.000000000000000e+00     m=    1.000000000000000e+00   
warning, can't find model 'sky130_fd_pr__nfet_01v8__model' from line
    m.x49.msky130_fd_pr__nfet_01v8 vn cks vp vn sky130_fd_pr__nfet_01v8__model l=    1.500000000000000e-01     w=    1.000000000000000e+01     nf=    1.000000000000000e+00     ad=    0.000000000000000e+00     as=    0.000000000000000e+00     pd=    0.000000000000000e+00     ps=    0.000000000000000e+00     nrd=    0.000000000000000e+00     nrs=    0.000000000000000e+00     sa=    0.000000000000000e+00     sb=    0.000000000000000e+00     sd=    0.000000000000000e+00     m=    1.000000000000000e+00   
warning, can't find model 'sky130_fd_pr__nfet_01v8__model' from line
    m.x50.msky130_fd_pr__nfet_01v8 vp cks vn vn sky130_fd_pr__nfet_01v8__model l=    1.500000000000000e-01     w=    1.000000000000000e+01     nf=    1.000000000000000e+00     ad=    0.000000000000000e+00     as=    0.000000000000000e+00     pd=    0.000000000000000e+00     ps=    0.000000000000000e+00     nrd=    0.000000000000000e+00     nrs=    0.000000000000000e+00     sa=    0.000000000000000e+00     sb=    0.000000000000000e+00     sd=    0.000000000000000e+00     m=    1.000000000000000e+00   
warning, can't find model 'sky130_fd_pr__nfet_01v8__model' from line
    m.x51.msky130_fd_pr__nfet_01v8 vn cks vp vn sky130_fd_pr__nfet_01v8__model l=    1.500000000000000e-01     w=    1.000000000000000e+01     nf=    1.000000000000000e+00     ad=    0.000000000000000e+00     as=    0.000000000000000e+00     pd=    0.000000000000000e+00     ps=    0.000000000000000e+00     nrd=    0.000000000000000e+00     nrs=    0.000000000000000e+00     sa=    0.000000000000000e+00     sb=    0.000000000000000e+00     sd=    0.000000000000000e+00     m=    1.000000000000000e+00   
warning, can't find model 'sky130_fd_pr__nfet_01v8__model' from line
    m.x52.msky130_fd_pr__nfet_01v8 vp cks vn vn sky130_fd_pr__nfet_01v8__model l=    1.500000000000000e-01     w=    1.000000000000000e+01     nf=    1.000000000000000e+00     ad=    0.000000000000000e+00     as=    0.000000000000000e+00     pd=    0.000000000000000e+00     ps=    0.000000000000000e+00     nrd=    0.000000000000000e+00     nrs=    0.000000000000000e+00     sa=    0.000000000000000e+00     sb=    0.000000000000000e+00     sd=    0.000000000000000e+00     m=    1.000000000000000e+00   
warning, can't find model 'sky130_fd_pr__nfet_01v8__model' from line
    m.x53.msky130_fd_pr__nfet_01v8 vn cks vp vn sky130_fd_pr__nfet_01v8__model l=    1.500000000000000e-01     w=    1.000000000000000e+01     nf=    1.000000000000000e+00     ad=    0.000000000000000e+00     as=    0.000000000000000e+00     pd=    0.000000000000000e+00     ps=    0.000000000000000e+00     nrd=    0.000000000000000e+00     nrs=    0.000000000000000e+00     sa=    0.000000000000000e+00     sb=    0.000000000000000e+00     sd=    0.000000000000000e+00     m=    1.000000000000000e+00   
warning, can't find model 'sky130_fd_pr__nfet_01v8__model' from line
    m.x54.msky130_fd_pr__nfet_01v8 vn cks vp vn sky130_fd_pr__nfet_01v8__model l=    1.500000000000000e-01     w=    1.000000000000000e+01     nf=    1.000000000000000e+00     ad=    0.000000000000000e+00     as=    0.000000000000000e+00     pd=    0.000000000000000e+00     ps=    0.000000000000000e+00     nrd=    0.000000000000000e+00     nrs=    0.000000000000000e+00     sa=    0.000000000000000e+00     sb=    0.000000000000000e+00     sd=    0.000000000000000e+00     m=    1.000000000000000e+00   
warning, can't find model 'sky130_fd_pr__nfet_01v8__model' from line
    m.x55.msky130_fd_pr__nfet_01v8 vp cks vn vn sky130_fd_pr__nfet_01v8__model l=    1.500000000000000e-01     w=    1.000000000000000e+01     nf=    1.000000000000000e+00     ad=    0.000000000000000e+00     as=    0.000000000000000e+00     pd=    0.000000000000000e+00     ps=    0.000000000000000e+00     nrd=    0.000000000000000e+00     nrs=    0.000000000000000e+00     sa=    0.000000000000000e+00     sb=    0.000000000000000e+00     sd=    0.000000000000000e+00     m=    1.000000000000000e+00   
warning, can't find model 'sky130_fd_pr__nfet_01v8__model' from line
    m.x56.msky130_fd_pr__nfet_01v8 vn cks vp vn sky130_fd_pr__nfet_01v8__model l=    1.500000000000000e-01     w=    1.000000000000000e+01     nf=    1.000000000000000e+00     ad=    0.000000000000000e+00     as=    0.000000000000000e+00     pd=    0.000000000000000e+00     ps=    0.000000000000000e+00     nrd=    0.000000000000000e+00     nrs=    0.000000000000000e+00     sa=    0.000000000000000e+00     sb=    0.000000000000000e+00     sd=    0.000000000000000e+00     m=    1.000000000000000e+00   
warning, can't find model 'sky130_fd_pr__nfet_01v8__model' from line
    m.x57.msky130_fd_pr__nfet_01v8 vn cks vp vn sky130_fd_pr__nfet_01v8__model l=    1.500000000000000e-01     w=    1.000000000000000e+01     nf=    1.000000000000000e+00     ad=    0.000000000000000e+00     as=    0.000000000000000e+00     pd=    0.000000000000000e+00     ps=    0.000000000000000e+00     nrd=    0.000000000000000e+00     nrs=    0.000000000000000e+00     sa=    0.000000000000000e+00     sb=    0.000000000000000e+00     sd=    0.000000000000000e+00     m=    1.000000000000000e+00   
warning, can't find model 'sky130_fd_pr__nfet_01v8__model' from line
    m.x58.msky130_fd_pr__nfet_01v8 vp cks vn vn sky130_fd_pr__nfet_01v8__model l=    1.500000000000000e-01     w=    1.000000000000000e+01     nf=    1.000000000000000e+00     ad=    0.000000000000000e+00     as=    0.000000000000000e+00     pd=    0.000000000000000e+00     ps=    0.000000000000000e+00     nrd=    0.000000000000000e+00     nrs=    0.000000000000000e+00     sa=    0.000000000000000e+00     sb=    0.000000000000000e+00     sd=    0.000000000000000e+00     m=    1.000000000000000e+00   
warning, can't find model 'sky130_fd_pr__nfet_01v8__model' from line
    m.x59.msky130_fd_pr__nfet_01v8 vn cks vp vn sky130_fd_pr__nfet_01v8__model l=    1.500000000000000e-01     w=    1.000000000000000e+01     nf=    1.000000000000000e+00     ad=    0.000000000000000e+00     as=    0.000000000000000e+00     pd=    0.000000000000000e+00     ps=    0.000000000000000e+00     nrd=    0.000000000000000e+00     nrs=    0.000000000000000e+00     sa=    0.000000000000000e+00     sb=    0.000000000000000e+00     sd=    0.000000000000000e+00     m=    1.000000000000000e+00   
Error on line 0 or its substitute:
  m.x1.x7.xm1.msky130_fd_pr__pfet_01v8 x1.net3 x1.net4 vs vs sky130_fd_pr__pfet_01v8__model l=    1.500000000000000e-01     w=    1.260000000000000e+00     nf=    1.000000000000000e+00     ad=    3.654000000000000e-01     as=    3.654000000000000e-01     pd=    3.100000000000000e+00     ps=    3.100000000000000e+00     nrd=    2.301587301587301e-01     nrs=    2.301587301587301e-01     sa=    0.000000000000000e+00     sb=    0.000000000000000e+00     sd=    0.000000000000000e+00     m=    1.000000000000000e+00   
could not find a valid modelname
    Simulation interrupted due to error!

Error: circuit not parsed.

Note: no resource usage information for 'time',
	or no active circuit available

Total elapsed time (seconds) = 9.560 

Total DRAM available = 7725.230 MB.
DRAM currently available =  296.512 MB.
Maximum ngspice program size =  711.984 MB.
Current ngspice program size =  646.125 MB.

Shared ngspice pages =    8.875 MB.
Text (code) pages =    4.934 MB.
Stack = 0 bytes.
Library pages =  637.949 MB.

