
Note: Compatibility modes selected: hs a

Warning: m=xx on .subckt line will override multiplier m hierarchy!


Circuit: ** sch_path: /foss/designs/untitled-3.sch

option SCALE: Scale is set to 1e-06 for instance and model parameters
binary raw file "/foss/designs/component/NAND3/simulation/untitled-3.raw"
Doing analysis at TEMP = 27.000000 and TNOM = 27.000000

Warning: v4: no DC value, transient time 0 value used
Warning: v2: no DC value, transient time 0 value used
No. of Data Columns : 119  

Initial Transient Solution
--------------------------

Node                                   Voltage
----                                   -------
vs                                         0.6
net1                                         0
rst                                          0
t1                                 6.55989e-06
t4                                    0.599999
t2                                         0.6
x7.net1                             3.2798e-06
x8.net1                              0.0108706
x8.net2                             0.00123123
t5                                         0.6
q                                   6.5598e-06
x6.net1                             0.00664804
t3                                         0.6
x6.net2                             0.00664803
x4.net1                                0.38033
x4.net2                            5.46511e-09
x5.net1                               0.363978
x5.net2                               0.346034
x2.net1                            3.27978e-06
v4#branch                                    0
v2#branch                                    0
v1#branch                         -2.41639e-11


No. of Data Rows : 79145

Total analysis time (seconds) = 23.527

Total elapsed time (seconds) = 33.055 

Total DRAM available = 7725.230 MB.
DRAM currently available =  146.961 MB.
Maximum ngspice program size =  849.570 MB.
Current ngspice program size =  663.805 MB.

Shared ngspice pages =    9.027 MB.
Text (code) pages =    4.934 MB.
Stack = 0 bytes.
Library pages =  775.477 MB.

