
Note: Compatibility modes selected: hs a

Warning: m=xx on .subckt line will override multiplier m hierarchy!


Circuit: ** sch_path: /foss/designs/pico/main_comparator/p1.sch

option SCALE: Scale is set to 1e-06 for instance and model parameters
Error on line 86 or its substitute:
  .tran 0 10n 10n
TSTEP is invalid, must be greater than zero.
    Simulation interrupted due to error!

Error: circuit not parsed.

Note: no resource usage information for 'time',
	or no active circuit available

Total elapsed time (seconds) = 23.078 

Total DRAM available = 7829.664 MB.
DRAM currently available =  177.328 MB.
Maximum ngspice program size =  729.543 MB.
Current ngspice program size =  663.695 MB.

Shared ngspice pages =    8.883 MB.
Text (code) pages =    4.934 MB.
Stack = 0 bytes.
Library pages =  655.508 MB.

