
Note: Compatibility modes selected: hs a

Warning: m=xx on .subckt line will override multiplier m hierarchy!


Circuit: ** sch_path: /foss/designs/current_source_lvt.sch

option SCALE: Scale is set to 1e-06 for instance and model parameters
binary raw file "/foss/designs/component/INV/simulation/current_source_LVT.raw"
Doing analysis at TEMP = 27.000000 and TNOM = 27.000000

Warning: v2: no DC value, transient time 0 value used
No. of Data Columns : 48  

Initial Transient Solution
--------------------------

Node                                   Voltage
----                                   -------
vdd                                        0.6
g1                                     0.39279
d2                                  0.00214995
vin                                          0
g2                                    0.444137
net3                                   0.39279
net1                                0.00214995
net2                                       0.6
net4                                0.00211531
d3                                  0.00211531
net5                                  0.596178
net6                                  0.444137
d1                                    0.596178
vmeas5#branch                      2.22045e-16
vmeas4#branch                                0
vmeas3#branch                      1.22361e-09
vmeas2#branch                      2.60209e-18
vmeas1#branch                      1.22301e-09
v2#branch                                    0
v1#branch                          -4.3132e-08


No. of Data Rows : 10109

Total analysis time (seconds) = 2.506

Total elapsed time (seconds) = 16.433 

Total DRAM available = 7829.664 MB.
DRAM currently available =  157.887 MB.
Maximum ngspice program size =  849.582 MB.
Current ngspice program size =  663.539 MB.

Shared ngspice pages =    8.750 MB.
Text (code) pages =    4.934 MB.
Stack = 0 bytes.
Library pages =  775.488 MB.

