
Note: Compatibility modes selected: hs a

Warning: m=xx on .subckt line will override multiplier m hierarchy!


Circuit: ** sch_path: /foss/designs/n-mos_test.sch

option SCALE: Scale is set to 1e-06 for instance and model parameters
binary raw file "/foss/designs/component/INV/simulation/n-mos_test.raw"
Doing analysis at TEMP = 27.000000 and TNOM = 27.000000

Warning: v2: no DC value, transient time 0 value used
No. of Data Columns : 48  

Initial Transient Solution
--------------------------

Node                                   Voltage
----                                   -------
vdd                                        0.6
g1                                    0.406789
d3                                 0.000230973
net1                               0.000234977
net2                                       0.6
net4                               0.000230973
net5                                  0.599595
net3                                  0.313491
g2                                    0.313491
d1                                    0.599595
net6                                  0.406789
d2                                 0.000234977
vin                                          0
vmeas3#branch                      1.40136e-11
vmeas4#branch                                0
vmeas2#branch                      5.42101e-20
vmeas1#branch                      1.34128e-11
vmeas#branch                                 0
v2#branch                                    0
v1#branch                         -3.59556e-09


No. of Data Rows : 155

Total analysis time (seconds) = 0.053

Total elapsed time (seconds) = 13.977 

Total DRAM available = 7829.664 MB.
DRAM currently available =  227.523 MB.
Maximum ngspice program size =  849.605 MB.
Current ngspice program size =  663.566 MB.

Shared ngspice pages =    8.754 MB.
Text (code) pages =    4.934 MB.
Stack = 0 bytes.
Library pages =  775.512 MB.

