
Note: Compatibility modes selected: hs a

Warning: m=xx on .subckt line will override multiplier m hierarchy!


Circuit: ** sch_path: /foss/designs/pico/akshat_comp/ezyzip/pico/comparator/comparator.sch

option SCALE: Scale is set to 1e-06 for instance and model parameters
binary raw file "/foss/designs/pico/akshat_comp/ezyzip/PICO/Inverter/simulation/Comparator.raw"
Doing analysis at TEMP = 27.000000 and TNOM = 27.000000

Warning: v3: no DC value, transient time 0 value used
No. of Data Columns : 118  

Initial Transient Solution
--------------------------

Node                                   Voltage
----                                   -------
net2                                  0.246884
net3                                  0.245772
net4                               3.08188e-08
vin+                                       0.3
net1                                  0.478391
vdd                                        1.2
vin-                                     0.301
clkb1b                                     1.2
clkb11                             6.22613e-08
inv                                        1.2
clk                                          0
x1.net1                                    1.2
net5                               6.22615e-08
net6                                       1.2
clkb2                              6.22615e-08
net7                                       1.2
out-                               3.16961e-08
net8                                  0.434601
net9                                       1.2
out+                                       1.2
v5#branch                                    0
v4#branch                                    0
v3#branch                                    0
v1#branch                          -7.7582e-11


No. of Data Rows : 719

Total analysis time (seconds) = 0.225

Total elapsed time (seconds) = 14.730 

Total DRAM available = 7829.664 MB.
DRAM currently available =  225.613 MB.
Maximum ngspice program size =  849.602 MB.
Current ngspice program size =  663.441 MB.

Shared ngspice pages =    8.633 MB.
Text (code) pages =    4.934 MB.
Stack = 0 bytes.
Library pages =  775.508 MB.

